** Voltage buffer

.subckt BUFFER input output
    bOut    output      gnd     v={v(input)}
.ends BUFFER
