** Fixed limit clamper saturator
*   This component hard-clamps the input to the given lmin & lmax values 
*
*                    ________ <- lmax
*                   |     __ |
*   input >-------->|    /   |------> output
*                   | __/    |
*           lmin -> |________|
*                    



.subckt ClamperFixed input output lmin=-1 lmax=1
    Bout    output      gnd     v = v(input,gnd) > lmax ? lmax : 
                                   +v(input,gnd) < lmin ? lmin : 
                                   +v(input,gnd)
.ends ClamperFixed


.subckt DynamicClamper input output lmin lmax
    Bout    output      gnd     v = v(input,gnd) > v(lmax) ? v(lmax) :
                                   +v(input,gnd) < v(lmin) ? v(lmin) :
                                   +v(input,gnd)
.ends DynamicClamper
