** Balanced Three Phases Voltage Source
*
*
*                               rg
*                                ↓
*                   |----(~)----⊏⊐---- Ua
*                   |
*   Uneutral -------●----(~)----⊏⊐---- Ub
*                   |
*                   |----(~)----⊏⊐---- Uc
*
*

.subckt VSOURCE3PH Ua Ub Uc Uneutral   amplitude=311 fg=60 rg=0
.param pi2 = 6.283185307179586
* sources to resistors
    BVa      vra     Uneutral        v = amplitude * sin(pi2 * fg * time)
    BVb      vrb     Uneutral        v = amplitude * sin(pi2 * fg * time - 2.0943951023931953)
    BVc      vrc     Uneutral        v = amplitude * sin(pi2 * fg * time + 2.0943951023931953)

* resistors to output
    Ra      vra     Ua
    Rb      vrb     Ub
    Rc      vrc     Uc
.ends VSOURCE3PH
